<!--pages/details/habitDetails/index.wxml-->
<view>
  <!-- 顶部是否加入 -->
  <view class='habit-details-top'>
    <image class='habit-details-top-left' src='/uploads/home/jianshen.png'/>
    <view class='habit-details-top-text'>早睡早起</view>
    <image class='habit-details-top-right' src='/uploads/habit/lijijiaru.png'/>
  </view>

  <!-- 导航顶部 -->
  <view class='habit-details-top-nav'>
    <view>动态</view>
    <view bindtap='gotoMy'>我的</view>
  </view>

  <!-- 导航 -->
  <view class='habit-details-nav'>
    <view class='habit-details-nav-top'>
      <view class='habit-details-nav-top-btn'>
        <image src='/uploads/habit/paihangbang.png'/>
        <view>排行榜</view>
      </view>
      <view class='habit-details-nav-top-btn'>
        <image src='/uploads/habit/chengyuan.png'/>
        <view>成员</view>
      </view>
      <view class='habit-details-nav-top-btn'>
        <image src='/uploads/habit/yaoqinghaoyou.png'/>
        <view>邀请好友</view>
      </view>
      <view class='habit-details-nav-top-btn'>
        <image src='/uploads/habit/shezhi.png'/>
        <view>设置</view>
      </view>
    </view>
    <view class='habit-details-nav-line'></view>
    <view class='habit-details-nav-bottom'>
      <view>0人参与</view>
      <view>0次打卡</view>
    </view>
  </view>

  <!-- 动态(有数据时) -->
  <view class='habit-details-dynamic'>
    <!-- 大图模式 -->
    <view class='habit-details-dynamic-one-img'>
      <view class='habit-details-dynamic-one-img-top'>
        <!-- 头像avatar -->
        <view class='habit-details-dynamic-one-img-avatar'>
          <image src='/img/information/system.png'/>
        </view>
        <!-- 姓名、年龄、性别、发布日期 -->
        <view class='habit-details-dynamic-one-img-total'>
          <!-- 上半部分 -->
          <view class='habit-details-dynamic-one-img-total-top'>
            <view>考拉</view>
          </view>
          <!-- 下半部分 -->
          <view class='habit-details-dynamic-one-img-total-bottom'>
            <view>1分钟前</view>
          </view>
        </view>
        <!-- 右边部分 -->
        <view class='habit-details-dynamic-one-img-right'>
          <view>第111天</view>
        </view>
      </view>
      <!-- 内容部分 -->
      <view class='habit-details-dynamic-one-img-text'>
        <!-- 文字区域 -->
        <view>
           内容内容内容内容内容内容内容内容内容内容内容内容内容内容内容内容内容内容内容内容内容内容内容内容内容内容内容
        </view>
        <!-- 图片区域 -->
        <view class='habit-details-dynamic-one-img-text-one-img'>
          <image/>
        </view>
      </view>
      <!-- 分享、评论部分 -->
      <view class='habit-details-dynamic-one-img-bottom'>
        <view class='habit-details-dynamic-one-img-bottom-left'>
          <view>
            <text class='iconfont icon-aixin icon'></text>
            <text class='iconfont-size'>10</text>
          </view>
          <view>
            <text class='iconfont icon-liaotian icon'></text>
            <text class='iconfont-size'>10</text>
          </view>
          <text class='iconfont icon-fenxiang'></text>
        </view>
        <view class='habit-details-dynamic-one-img-bottom-right'>
           <text class='iconfont icon-gengduo'></text>
        </view>
      </view>
      <!-- 评论部分 -->
      <view class='habit-details-dynamic-one-img-comments'>
        <view class='habit-details-dynamic-one-img-comments-detail'>
          <text>名字：</text>
          <text>评论内容评论内容评论内容评论内容评论内容评论内容评论内容评论内容</text>
        </view>
         <view class='habit-details-dynamic-one-img-comments-detail'>
          <text>名字：</text>
          <text>评论内容评论内容评论内容评论内容评论内容评论内容评论内容评论内容</text>
        </view>
      </view>

    </view>
  </view>

  <!-- 组合图模式 -->
  <view class='habit-details-dynamic'>
    <!-- 大图模式 -->
    <view class='habit-details-dynamic-one-img'>
      <!-- 上半部分 -->
      <view class='habit-details-dynamic-one-img-top'>
        <!-- 头像avatar -->
        <view class='habit-details-dynamic-one-img-avatar'>
          <image src='/img/information/system.png'/>
        </view>
        <!-- 姓名、年龄、性别、发布日期 -->
        <view class='habit-details-dynamic-one-img-total'>
          <!-- 上半部分 -->
          <view class='habit-details-dynamic-one-img-total-top'>
            <view>考拉</view>
          </view>
          <!-- 下半部分 -->
          <view class='habit-details-dynamic-one-img-total-bottom'>
            <view>1分钟前</view>
          </view>
        </view>
        <!-- 右边部分 -->
        <view class='habit-details-dynamic-one-img-right'>
          <view>第111天</view>
        </view>
      </view>
      <!-- 内容部分 -->
      <view class='habit-details-dynamic-one-img-text'>
        <!-- 文字区域 -->
        <view>
           内容内容内容内容内容内容内容内容内容内容内容内容内容内容内容内容内容内容内容内容内容内容内容内容内容内容内容
        </view>
        <!-- 图片区域 -->
        <view class='habit-details-dynamic-one-img-text-img'>
          <view> <view></view> </view>
          <view> <view></view></view>
          <view> <view></view></view>
          <view> <view></view></view>
          <view> <view></view></view>
          <view> <view></view></view>
          <view> <view></view></view>
          <view> <view></view></view>
          <view> <view></view></view>
        </view>
      </view>
      <!-- 分享、评论部分 -->
      <view class='habit-details-dynamic-one-img-bottom'>
        <view class='habit-details-dynamic-one-img-bottom-left'>
          <view>
            <text class='iconfont icon-aixin icon'></text>
            <text class='iconfont-size'>10</text>
          </view>
          <view>
            <text class='iconfont icon-liaotian icon'></text>
            <text class='iconfont-size'>10</text>
          </view>
          <text class='iconfont icon-fenxiang'></text>
        </view>
        <view class='habit-details-dynamic-one-img-bottom-right'>
           <text class='iconfont icon-gengduo'></text>
        </view>
      </view>
      <!-- 评论部分 -->
      <view class='habit-details-dynamic-one-img-comments'>
        <view class='habit-details-dynamic-one-img-comments-detail'>
          <text>名字：</text>
          <text>评论内容评论内容评论内容评论内容评论内容评论内容评论内容评论内容</text>
        </view>
         <view class='habit-details-dynamic-one-img-comments-detail'>
          <text>名字：</text>
          <text>评论内容评论内容评论内容评论内容评论内容评论内容评论内容评论内容</text>
        </view>
      </view>

    </view>
  </view>

  <!-- 无数据时 -->
  <view class='habit-details-text'>
    <image src='/uploads/habit/dongtai.png'/>
    <view>一片荒芜</view>
     <view>还没有任何动态</view>
  </view>

</view>
